/*--------------------------------*- C++ -*----------------------------------*\
  | =========                 |                                                 |
  | \\      /  F ield         | OpenFOAM: The Open Source CFD Toolbox           |
  |  \\    /   O peration     | Version:  2.3.0                                 |
  |   \\  /    A nd           | Web:      www.OpenFOAM.org                      |
  |    \\/     M anipulation  |                                                 |
  \*---------------------------------------------------------------------------*/
FoamFile
{
  version     2.0;
  format      ascii;
  class       dictionary;
  object      blockMeshDict;
}
// * * * * * * * * * * * * * * * * * * * * * * * * * * * * * * * * * * * * * //

convertToMeters 1e-3;

vertices
(
    (6 0 -0.5)   //0 bottom circle
    (0 6 -0.5)   //1
    (-6 0 -0.5)  //2
    (0 -6 -0.5)  //3
    (0.5 0 -0.5)   //4 x cutoff
    (0 0.5 -0.5)   //5 y cutoff

    (6 0 0.5)    //6 top circle
    (0 6 0.5)    //7
    (-6 0 0.5)   //8
    (0 -6 0.5)   //9
    (0.5 0 0.5)    //10 x cutoff
    (0 0.5 0.5)    //11 y cutoff

    (0 0 -0.5)	 //12
    (0 0 0.5)    //13 circle centres
);

blocks
(
 hex (0 1 5 4 6 7 11 10)    (200 500 1) simpleGrading (1 1 1)
 hex (4 5 12 12 10 11 13 13) (200 1 1)  simpleGrading (1 1 1)
 );

edges
(
 arc 0 1 (4.2426 4.2426 -0.5) //(cx+rcos45 cy+rsin45 cz) for bottom circle big arc
 arc 5 4 (0.7071 0.7071 -0.5) //bottom circle small arc

 arc 6 7 (4.2426 4.2426 0.5) //top circle big arc
 arc 11 10 (0.7071 0.7071 0.5) //top circle small arc
);

boundary
(
    walls
    {
        type wall;
        faces
        (
            (0 6 7 1)
            (0 1 5 4)
	    (6 7 11 10)
	    (4 5 12 12)
	    (10 11 13 13)
        );
    }
    wedges
    {
	type symmetry;
	faces
	(
	    (0 6 10 4)
	    (5 11 7 1)
	    (12 4 10 13)
	    (5 12 13 11)
	);
    }
 );

mergePatchPairs
(
);

// ************************************************************************* //
